Circuit: * C:\Muntakim_Files\School\Engineering_Bachelors\2024\ELEC_391\Assignments\PCB_Design\SimpleAstableMultivibrator\SPICE\SimpleAstableMultivibrator.asc

Direct Newton iteration for .op point succeeded.

Date: Tue Jan 28 19:51:10 2025
Total elapsed time: 0.101 seconds.

tnom = 27
temp = 27
method = modified trap
totiter = 15409
traniter = 15401
tranpoints = 3933
accept = 3049
rejected = 884
matrix size = 12
fillins = 6
solver = Normal
Avg thread counts: 1.4/2.5/2.6/1.4
Matrix Compiler1: 1.18 KB object code size  0.4/0.2/[0.2]
Matrix Compiler2: off  [0.1]/0.2/0.2

